<?xml version="1.0" encoding="UTF-8"?>

<!-- generated on 2023-11-09 14:59:32 by Eclipse SUMO netedit Version 1.18.0
<configuration xmlns:xsi="http://www.w3.org/2001/XMLSchema-instance" xsi:noNamespaceSchemaLocation="http://sumo.dlr.de/xsd/neteditConfiguration.xsd">

    <input>
        <sumo-net-file value="G:\sysu\Platooning\env\cfg\3_lane_freeway.net.xml"/>
    </input>

    <output>
        <output-file value="G:\sysu\Platooning\env\cfg\3_lane_freeway.net.xml"/>
    </output>

    <processing>
        <offset.disable-normalization value="true"/>
    </processing>

    <junctions>
        <no-turnarounds value="true"/>
    </junctions>

    <netedit>
        <new-network value="false"/>
    </netedit>

</configuration>
-->

<net version="1.16" junctionCornerDetail="5" limitTurnSpeed="5.50" xmlns:xsi="http://www.w3.org/2001/XMLSchema-instance" xsi:noNamespaceSchemaLocation="http://sumo.dlr.de/xsd/net_file.xsd">

    <location netOffset="0.00,0.00" convBoundary="0.00,0.00,2200.00,0.00" origBoundary="10000000000.00,10000000000.00,-10000000000.00,-10000000000.00" projParameter="!"/>

    <edge id="E5" from="J0" to="J2" priority="-1">
        <lane id="E5_0" index="0" speed="20" length="2200.00" shape="0.00,-11.20 2200.00,-11.20"/>
        <lane id="E5_1" index="1" speed="20" length="2200.00" shape="0.00,-8.00 2200.00,-8.00"/>
        <lane id="E5_2" index="2" speed="20" length="2200.00" shape="0.00,-4.80 2200.00,-4.80"/>
        <lane id="E5_3" index="3" speed="20" length="2200.00" shape="0.00,-1.60 2200.00,-1.60"/>
    </edge>

    <junction id="J0" type="dead_end" x="0.00" y="0.00" incLanes="" intLanes="" shape="0.00,0.00 0.00,-9.60"/>
    <junction id="J2" type="dead_end" x="2200.00" y="0.00" incLanes="E5_0 E5_1 E5_2 E5_3" intLanes="" shape="2200.00,-9.60 2200.00,0.00"/>

</net>
